data_molecule
########################
# generated by molgeom #
########################

loop_
_space_group_symop_operation_xyz
 'x, y, z'

_cell_length_a 15.170299530
_cell_length_b 15.170299530
_cell_length_c 15.170299530
_cell_angle_alpha 101.855506897
_cell_angle_beta 101.855506897
_cell_angle_gamma 101.855506897

loop_
_atom_site_label
_atom_site_type_symbol
_atom_site_fract_x
_atom_site_fract_y
_atom_site_fract_z
  1 H       0.633816648520      0.507729891668      0.024495367993
  2 H       0.706522358485      0.530671826950      0.121074832391
  3 O       0.639849753113      0.514283601626      0.091129421834
